Version 4
SHEET 1 1824 680
WIRE -1040 -1312 -1216 -1312
WIRE -976 -1312 -1040 -1312
WIRE -832 -1296 -912 -1296
WIRE -624 -1296 -832 -1296
WIRE -1216 -1200 -1216 -1312
WIRE -1216 -1200 -1264 -1200
WIRE -1200 -1200 -1216 -1200
WIRE -1840 -1072 -1888 -1072
WIRE -1200 -1072 -1216 -1072
WIRE -1184 -1072 -1200 -1072
WIRE -2032 -1056 -2080 -1056
WIRE -1936 -1056 -1984 -1056
WIRE -1888 -1056 -1888 -1072
WIRE -2032 -976 -2032 -1056
WIRE -1984 -976 -2032 -976
WIRE -1936 -976 -1936 -1056
WIRE -1888 -976 -1936 -976
WIRE -2080 -960 -2080 -976
WIRE -1200 -880 -1200 -1072
WIRE -1200 -880 -1648 -880
WIRE -928 -848 -992 -848
WIRE -816 -848 -848 -848
WIRE -1264 -816 -1424 -816
WIRE -1184 -816 -1200 -816
WIRE -2032 -768 -2096 -768
WIRE -1184 -768 -1184 -816
WIRE -1184 -768 -1280 -768
WIRE -1152 -768 -1168 -768
WIRE -1024 -768 -1072 -768
WIRE -768 -768 -896 -768
WIRE -1024 -752 -1024 -768
WIRE -992 -752 -992 -848
WIRE -992 -752 -1024 -752
WIRE -928 -752 -992 -752
WIRE -1136 -736 -1232 -736
WIRE -816 -736 -816 -848
WIRE -816 -736 -864 -736
WIRE -704 -736 -816 -736
WIRE -688 -736 -704 -736
WIRE -2032 -720 -2032 -768
WIRE -1920 -720 -1952 -720
WIRE -1280 -720 -1280 -768
WIRE -1264 -720 -1280 -720
WIRE -928 -720 -992 -720
WIRE -1184 -704 -1184 -768
WIRE -1184 -704 -1200 -704
WIRE -992 -704 -992 -720
WIRE -992 -704 -1184 -704
WIRE -1648 -688 -1648 -880
WIRE -1520 -688 -1648 -688
WIRE -1424 -688 -1424 -816
WIRE -1424 -688 -1440 -688
WIRE -1392 -688 -1424 -688
WIRE -1280 -688 -1312 -688
WIRE -1264 -688 -1280 -688
WIRE -1280 -672 -1280 -688
WIRE -1888 -608 -1936 -608
WIRE -1136 -576 -1136 -736
WIRE -1136 -576 -1312 -576
WIRE -768 -576 -768 -768
WIRE -768 -576 -1136 -576
WIRE -624 -576 -624 -1296
WIRE -624 -576 -768 -576
WIRE -1312 -384 -1312 -576
WIRE -1312 -384 -1536 -384
WIRE -1536 -368 -1536 -384
WIRE -1216 -320 -1360 -320
WIRE -1312 -304 -1312 -384
WIRE -1360 -288 -1360 -320
WIRE -1344 -288 -1360 -288
WIRE -1536 -272 -1536 -288
WIRE -1456 -272 -1536 -272
WIRE -1216 -272 -1216 -320
WIRE -1216 -272 -1280 -272
WIRE -1168 -272 -1168 -768
WIRE -1168 -272 -1216 -272
WIRE -1536 -256 -1536 -272
WIRE -1456 -256 -1456 -272
WIRE -1344 -256 -1456 -256
FLAG -704 -736 Vout
IOPIN -704 -736 Out
FLAG -2080 -960 0
FLAG -1840 -1072 Stimulus
FLAG -1920 -720 9V
IOPIN -1920 -720 Out
FLAG -2096 -688 0
FLAG -1264 -1200 9V
IOPIN -1264 -1200 In
FLAG -1888 -608 Vout
IOPIN -1888 -608 Out
FLAG -1216 -1072 Stimulus
FLAG -896 -704 0
FLAG -1536 -176 0
FLAG -1312 -240 0
FLAG -1040 -1248 0
FLAG -912 -1328 0
FLAG -832 -1232 0
FLAG -1280 -608 0
FLAG -1232 -672 0
SYMBOL voltage -1984 -1072 R0
WINDOW 123 0 0 Left 0
WINDOW 39 0 0 Left 0
WINDOW 3 -89 197 Left 2
WINDOW 0 -13 54 Left 2
SYMATTR Value PWL file=PWLinput.csv
SYMATTR InstName V2
SYMBOL voltage -1888 -1072 R0
WINDOW 123 24 44 Left 2
WINDOW 39 0 0 Left 0
WINDOW 3 -386 233 Left 2
WINDOW 0 -11 56 Left 2
SYMATTR Value SINE({sineOffset} {sineAmplitude} {sineFreq})
SYMATTR InstName V3
SYMBOL voltage -2080 -1072 R0
WINDOW 123 0 0 Left 0
WINDOW 39 0 0 Left 0
WINDOW 3 3 160 Left 2
WINDOW 0 -13 55 Left 2
SYMATTR Value {dcAmplitude}
SYMATTR InstName V1
SYMBOL voltage -2096 -784 R0
WINDOW 123 24 44 Left 2
WINDOW 39 0 0 Left 0
WINDOW 3 -46 76 Left 2
WINDOW 0 -13 57 Left 2
SYMATTR Value 9
SYMATTR InstName V4
SYMBOL res -1936 -736 R90
WINDOW 0 -9 30 VBottom 2
WINDOW 3 34 56 VTop 2
SYMATTR InstName R_Sense
SYMATTR Value 0.010
SYMBOL res -1056 -784 R90
WINDOW 0 0 56 VBottom 2
WINDOW 3 31 54 VTop 2
SYMATTR InstName R5
SYMATTR Value 1K
SYMBOL res -832 -864 R90
WINDOW 0 0 56 VBottom 2
WINDOW 3 38 65 VTop 2
SYMATTR InstName R7
SYMATTR Value 20k
SYMBOL Opamps\\opamp2 -896 -800 R0
SYMATTR InstName U2
SYMATTR Value TLC2272
SYMBOL res -1552 -384 R0
SYMATTR InstName R8
SYMATTR Value 10k
SYMBOL res -1552 -272 R0
SYMATTR InstName R9
SYMATTR Value 5243
SYMBOL AutoGenerated\\LM7805 -944 -1312 R0
SYMATTR InstName U3
SYMBOL cap -1056 -1312 R0
WINDOW 3 -71 31 Left 2
SYMATTR InstName C1
SYMATTR Value 0.33µ
SYMBOL cap -848 -1296 R0
SYMATTR InstName C3
SYMATTR Value 0.1µ
SYMBOL Opamps\\opamp2 -1312 -336 R0
SYMATTR InstName U1
SYMATTR Value TL081
SYMBOL Opamps\\opamp2 -1232 -768 R0
SYMATTR InstName U4
SYMATTR Value TL081
SYMBOL res -1296 -704 R90
WINDOW 0 0 56 VBottom 2
WINDOW 3 32 56 VTop 2
SYMATTR InstName R1
SYMATTR Value 1k
SYMBOL res -1424 -704 R90
WINDOW 0 0 56 VBottom 2
WINDOW 3 32 56 VTop 2
SYMATTR InstName R2
SYMATTR Value 2k
SYMBOL cap -1200 -832 R90
WINDOW 0 0 32 VBottom 2
WINDOW 3 32 32 VTop 2
SYMATTR InstName C2
SYMATTR Value 3µ
SYMBOL cap -1264 -608 R180
WINDOW 0 24 56 Left 2
WINDOW 3 24 8 Left 2
SYMATTR InstName C4
SYMATTR Value 1.69µ
TEXT -2080 -1120 Left 2 !.tran 0 {transtop} 0 {timestep}
TEXT -1952 -1168 Left 2 !.include E344cfg.txt
TEXT -2288 -1384 Left 2 ;Don't change these -- used for auto-assessments.\nYou may modify input files while developing.\nFor submission: \n  * Use only 9V supply \n  * Connect "Stimulus" to your input\n  * Connect "Vout" to your output.\n  * Only one label name per net.
TEXT -2280 -1168 Left 2 ;Config file:
TEXT -2280 -1120 Left 2 ;Analysis setup:
TEXT -2272 -744 Left 2 ;Battery
TEXT -2280 -1032 Left 2 ;Sensor-\nemulating \nstimulus
TEXT -2272 -608 Left 2 ;Assessed nets:\nConnect to your outputs
TEXT -1552 -1400 Left 2 ;E. Stewdent.,  00024601\nV(0degV) = 500 mV\ndeltaV/degV = 10 mV
TEXT -528 -936 Left 2 !.incl TLC2272.LIB
TEXT -528 -912 Left 2 !.incl TL081.lib
LINE Normal -1792 -1008 -1856 -1008 2
LINE Normal -1792 -864 -1792 -1008 2
LINE Normal -1808 -880 -1792 -864 2
LINE Normal -1792 -864 -1808 -880 2
LINE Normal -1776 -880 -1792 -864 2
LINE Normal -2128 -1008 -2112 -1008 2
LINE Normal -2128 -928 -2128 -1008 2
LINE Normal -2128 -912 -2128 -928 2
LINE Normal -2096 -912 -2128 -912 2
LINE Normal -2112 -928 -2096 -912 2
LINE Normal -2096 -912 -2112 -928 2
LINE Normal -2112 -896 -2096 -912 2
LINE Normal -1968 -944 -1968 -992 2
LINE Normal -1856 -944 -1968 -944 2
LINE Normal -1856 -896 -1856 -944 2
LINE Normal -1872 -912 -1856 -896 2
LINE Normal -1856 -896 -1872 -912 2
LINE Normal -1840 -912 -1856 -896 2
LINE Normal -2304 -544 -2304 -1408 1
LINE Normal -1680 -1408 -1680 -544 1
LINE Normal -1680 -544 -2304 -544 1
LINE Normal -1680 -1408 -2304 -1408 1
