Version 4
SHEET 1 1824 680
WIRE -1040 -1312 -1216 -1312
WIRE -976 -1312 -1040 -1312
WIRE -832 -1296 -912 -1296
WIRE -736 -1296 -832 -1296
WIRE -848 -1120 -976 -1120
WIRE -720 -1120 -784 -1120
WIRE -1248 -1104 -1376 -1104
WIRE -1120 -1104 -1184 -1104
WIRE -1840 -1072 -1888 -1072
WIRE -2032 -1056 -2080 -1056
WIRE -1936 -1056 -1984 -1056
WIRE -1888 -1056 -1888 -1072
WIRE -720 -1024 -720 -1120
WIRE -720 -1024 -864 -1024
WIRE -1120 -1008 -1120 -1104
WIRE -1120 -1008 -1264 -1008
WIRE -64 -992 -96 -992
WIRE 96 -992 16 -992
WIRE -2032 -976 -2032 -1056
WIRE -1984 -976 -2032 -976
WIRE -1936 -976 -1936 -1056
WIRE -1888 -976 -1936 -976
WIRE -2080 -960 -2080 -976
WIRE -240 -912 -416 -912
WIRE -96 -912 -96 -992
WIRE -96 -912 -160 -912
WIRE -864 -896 -864 -1024
WIRE -848 -896 -864 -896
WIRE -1264 -880 -1264 -1008
WIRE -1248 -880 -1264 -880
WIRE -720 -880 -720 -1024
WIRE -720 -880 -784 -880
WIRE -672 -880 -720 -880
WIRE -96 -880 -96 -912
WIRE -48 -880 -96 -880
WIRE -1120 -864 -1120 -1008
WIRE -1120 -864 -1184 -864
WIRE -1072 -864 -1120 -864
WIRE -976 -864 -976 -1120
WIRE -976 -864 -992 -864
WIRE -864 -864 -896 -864
WIRE -848 -864 -864 -864
WIRE 96 -864 96 -992
WIRE 96 -864 16 -864
WIRE 160 -864 96 -864
WIRE -1472 -848 -1520 -848
WIRE -1376 -848 -1376 -1104
WIRE -1376 -848 -1392 -848
WIRE -1264 -848 -1296 -848
WIRE -1248 -848 -1264 -848
WIRE -48 -848 -96 -848
WIRE -864 -816 -864 -864
WIRE -1264 -800 -1264 -848
WIRE -96 -800 -96 -848
WIRE -96 -800 -160 -800
WIRE -96 -784 -96 -800
WIRE -2032 -768 -2096 -768
WIRE -2032 -720 -2032 -768
WIRE -1920 -720 -1952 -720
WIRE -1888 -608 -1936 -608
WIRE -1520 -352 -1520 -384
WIRE -1440 -352 -1520 -352
WIRE -1232 -352 -1232 -384
WIRE -1136 -352 -1232 -352
WIRE -1520 -336 -1520 -352
WIRE -1232 -336 -1232 -352
FLAG -2080 -960 0
FLAG -1840 -1072 Stimulus
FLAG -1920 -720 9V
IOPIN -1920 -720 Out
FLAG -2096 -688 0
FLAG -1216 -1312 9V
IOPIN -1216 -1312 In
FLAG -1888 -608 Vout
IOPIN -1888 -608 Out
FLAG -1040 -1248 0
FLAG -912 -1328 0
FLAG -832 -1232 0
FLAG -736 -1296 5v
IOPIN -736 -1296 Out
FLAG -1520 -464 5v
IOPIN -1520 -464 In
FLAG -1520 -256 0
FLAG -1440 -352 ofset
IOPIN -1440 -352 Out
FLAG -240 -800 filter
IOPIN -240 -800 In
FLAG -16 -832 0
FLAG -16 -896 5v
IOPIN -16 -896 In
FLAG -1232 -464 5v
IOPIN -1232 -464 In
FLAG -1232 -256 0
FLAG -1136 -352 Vgnd
IOPIN -1136 -352 Out
FLAG -416 -832 0
FLAG -96 -704 Vgnd
IOPIN -96 -704 Out
FLAG 160 -864 Vout
IOPIN 160 -864 Out
FLAG -1520 -848 Stimulus
FLAG -1216 -832 0
FLAG -1216 -896 5v
IOPIN -1216 -896 In
FLAG -1264 -736 0
FLAG -672 -880 filter
IOPIN -672 -880 Out
FLAG -816 -848 0
FLAG -816 -912 5v
IOPIN -816 -912 In
FLAG -864 -752 0
SYMBOL voltage -1984 -1072 R0
WINDOW 123 0 0 Left 0
WINDOW 39 0 0 Left 0
WINDOW 3 -89 197 Left 2
WINDOW 0 -13 54 Left 2
SYMATTR Value PWL file=PWLinput.csv
SYMATTR InstName V2
SYMBOL voltage -1888 -1072 R0
WINDOW 123 24 44 Left 2
WINDOW 39 0 0 Left 0
WINDOW 3 -386 233 Left 2
WINDOW 0 -11 56 Left 2
SYMATTR Value SINE({sineOffset} {sineAmplitude} {sineFreq})
SYMATTR InstName V3
SYMBOL voltage -2080 -1072 R0
WINDOW 123 0 0 Left 0
WINDOW 39 0 0 Left 0
WINDOW 3 3 160 Left 2
WINDOW 0 -13 55 Left 2
SYMATTR Value {dcAmplitude}
SYMATTR InstName V1
SYMBOL voltage -2096 -784 R0
WINDOW 123 24 44 Left 2
WINDOW 39 0 0 Left 0
WINDOW 3 -46 76 Left 2
WINDOW 0 -13 57 Left 2
SYMATTR Value 9
SYMATTR InstName V4
SYMBOL res -1936 -736 R90
WINDOW 0 -9 30 VBottom 2
WINDOW 3 34 56 VTop 2
SYMATTR InstName R_Sense
SYMATTR Value 0.010
SYMBOL AutoGenerated\\LM7805 -944 -1312 R0
SYMATTR InstName U3
SYMBOL cap -1056 -1312 R0
WINDOW 3 -71 31 Left 2
SYMATTR Value 0.33µ
SYMATTR InstName C1
SYMBOL cap -848 -1296 R0
SYMATTR InstName C3
SYMATTR Value 0.1µ
SYMBOL res -144 -928 R90
WINDOW 0 0 56 VBottom 2
WINDOW 3 32 56 VTop 2
SYMATTR InstName R3
SYMATTR Value 21k
SYMBOL res -144 -816 R90
WINDOW 0 0 56 VBottom 2
WINDOW 3 32 56 VTop 2
SYMATTR InstName R4
SYMATTR Value 21k
SYMBOL res 32 -1008 R90
WINDOW 0 0 56 VBottom 2
WINDOW 3 32 56 VTop 2
SYMATTR InstName R5
SYMATTR Value 400k
SYMBOL res -80 -688 R180
WINDOW 0 36 76 Left 2
WINDOW 3 36 40 Left 2
SYMATTR InstName R6
SYMATTR Value 400k
SYMBOL res -1536 -480 R0
SYMATTR InstName R7
SYMATTR Value 10k
SYMBOL res -1536 -352 R0
SYMATTR InstName R
SYMATTR Value 10k
SYMBOL Opamps\\opamp2 -16 -928 R0
SYMATTR InstName U4
SYMATTR Value TLC2272
SYMBOL res -1248 -480 R0
SYMATTR InstName R9
SYMATTR Value 5k
SYMBOL res -1248 -352 R0
SYMATTR InstName R10
SYMATTR Value 5k
SYMBOL voltage -416 -928 R0
WINDOW 123 0 0 Left 0
WINDOW 39 0 0 Left 0
SYMATTR InstName V6
SYMATTR Value 1.72
SYMBOL res -1280 -864 R90
WINDOW 0 0 56 VBottom 2
WINDOW 3 32 56 VTop 2
SYMATTR InstName R11
SYMATTR Value 100k
SYMBOL res -1376 -864 R90
WINDOW 0 0 56 VBottom 2
WINDOW 3 35 59 VTop 2
SYMATTR InstName R12
SYMATTR Value 100k
SYMBOL cap -1184 -1120 R90
WINDOW 0 0 32 VBottom 2
WINDOW 3 32 32 VTop 2
SYMATTR InstName C6
SYMATTR Value 64n
SYMBOL cap -1248 -736 R180
WINDOW 0 24 56 Left 2
WINDOW 3 24 8 Left 2
SYMATTR InstName C7
SYMATTR Value 32n
SYMBOL Opamps\\opamp2 -1216 -928 R0
SYMATTR InstName U2
SYMATTR Value TLC2272
SYMBOL res -880 -880 R90
WINDOW 0 0 56 VBottom 2
WINDOW 3 32 56 VTop 2
SYMATTR InstName R1
SYMATTR Value 100k
SYMBOL res -976 -880 R90
WINDOW 0 0 56 VBottom 2
WINDOW 3 35 59 VTop 2
SYMATTR InstName R2
SYMATTR Value 100k
SYMBOL cap -784 -1136 R90
WINDOW 0 0 32 VBottom 2
WINDOW 3 32 32 VTop 2
SYMATTR InstName C2
SYMATTR Value 112n
SYMBOL cap -848 -752 R180
WINDOW 0 24 56 Left 2
WINDOW 3 24 8 Left 2
SYMATTR InstName C4
SYMATTR Value 56n
SYMBOL Opamps\\opamp2 -816 -944 R0
SYMATTR InstName U1
SYMATTR Value TLC2272
TEXT -2080 -1120 Left 2 !.tran 0 {transtop} 0 {timestep}
TEXT -1952 -1168 Left 2 !.include E344cfg.txt
TEXT -2288 -1384 Left 2 ;Don't change these -- used for auto-assessments.\nYou may modify input files while developing.\nFor submission: \n  * Use only 9V supply \n  * Connect "Stimulus" to your input\n  * Connect "Vout" to your output.\n  * Only one label name per net.
TEXT -2280 -1168 Left 2 ;Config file:
TEXT -2280 -1120 Left 2 ;Analysis setup:
TEXT -2272 -744 Left 2 ;Battery
TEXT -2280 -1032 Left 2 ;Sensor-\nemulating \nstimulus
TEXT -2272 -608 Left 2 ;Assessed nets:\nConnect to your outputs
TEXT -1552 -1400 Left 2 ;W. Deyzel,  21750793\nV(0degV) = 580 mV\ndeltaV/degV = 30 mV
TEXT -536 -1024 Left 2 !.incl TLC2272.LIB
TEXT -536 -1000 Left 2 !.incl TL081.lib
LINE Normal -1792 -1008 -1856 -1008 2
LINE Normal -1792 -864 -1792 -1008 2
LINE Normal -1808 -880 -1792 -864 2
LINE Normal -1792 -864 -1808 -880 2
LINE Normal -1776 -880 -1792 -864 2
LINE Normal -2128 -1008 -2112 -1008 2
LINE Normal -2128 -928 -2128 -1008 2
LINE Normal -2128 -912 -2128 -928 2
LINE Normal -2096 -912 -2128 -912 2
LINE Normal -2112 -928 -2096 -912 2
LINE Normal -2096 -912 -2112 -928 2
LINE Normal -2112 -896 -2096 -912 2
LINE Normal -1968 -944 -1968 -992 2
LINE Normal -1856 -944 -1968 -944 2
LINE Normal -1856 -896 -1856 -944 2
LINE Normal -1872 -912 -1856 -896 2
LINE Normal -1856 -896 -1872 -912 2
LINE Normal -1840 -912 -1856 -896 2
LINE Normal -2304 -544 -2304 -1408 1
LINE Normal -1680 -1408 -1680 -544 1
LINE Normal -1680 -544 -2304 -544 1
LINE Normal -1680 -1408 -2304 -1408 1
