Version 4
SHEET 1 1420 680
WIRE 896 144 752 144
WIRE 560 192 496 192
WIRE 688 192 688 144
WIRE 688 192 640 192
WIRE 784 192 688 192
WIRE 896 192 896 144
WIRE 896 192 864 192
WIRE 1056 192 896 192
WIRE 688 288 688 192
WIRE 688 288 432 288
WIRE 432 352 432 288
WIRE 480 352 432 352
WIRE 720 352 688 352
WIRE 480 384 448 384
WIRE 848 384 688 384
WIRE 912 384 848 384
WIRE 1056 384 1056 192
WIRE 1056 384 992 384
WIRE 1216 384 1056 384
WIRE 400 416 320 416
WIRE 480 416 400 416
WIRE 720 416 720 352
WIRE 720 416 688 416
WIRE 720 432 720 416
FLAG 720 432 0
FLAG 1216 384 Regular-Out
IOPIN 1216 384 Out
FLAG 848 448 0
FLAG 1056 448 0
FLAG 400 480 0
FLAG 320 496 0
FLAG 448 384 0
FLAG 496 192 0
SYMBOL cap 384 416 R0
WINDOW 3 29 58 Left 2
SYMATTR InstName C1
SYMATTR Value 120µ
SYMBOL cap 1040 384 R0
SYMATTR InstName C2
SYMATTR Value 120µ
SYMBOL schottky 864 448 R180
WINDOW 0 39 43 Left 2
WINDOW 3 24 0 Left 2
SYMATTR InstName D1
SYMATTR Value 1N5819
SYMBOL ind 896 400 R270
WINDOW 0 32 56 VTop 2
WINDOW 3 5 56 VBottom 2
SYMATTR InstName L1
SYMATTR Value 100µ
SYMBOL voltage 320 400 R0
WINDOW 123 0 0 Left 0
WINDOW 39 0 0 Left 0
SYMATTR InstName V1
SYMATTR Value 12
SYMBOL AutoGenerated\\LM2595_ADJ_TRANS 576 384 R0
SYMATTR InstName U1
SYMBOL cap 752 128 R90
WINDOW 0 0 32 VBottom 2
WINDOW 3 -22 -40 VTop 2
SYMATTR InstName C3
SYMATTR Value 10.52n
SYMBOL res 656 176 R90
WINDOW 0 0 56 VBottom 2
WINDOW 3 32 56 VTop 2
SYMATTR InstName R1
SYMATTR Value 1k
SYMBOL res 880 176 R90
WINDOW 0 0 56 VBottom 2
WINDOW 3 32 56 VTop 2
SYMATTR InstName R2
SYMATTR Value 3065
TEXT 144 80 Left 2 !.incl LM2595_ADJ_TRANS.LIB
TEXT 142 112 Left 2 !.tran 0 4m 0 1u
