Version 4
SHEET 1 1600 1236
WIRE 768 144 688 144
WIRE 896 144 832 144
WIRE 560 224 528 224
WIRE 688 224 688 144
WIRE 688 224 640 224
WIRE 784 224 688 224
WIRE 896 224 896 144
WIRE 896 224 864 224
WIRE 1056 224 896 224
WIRE 528 240 528 224
WIRE 688 288 688 224
WIRE 688 288 432 288
WIRE 432 352 432 288
WIRE 480 352 432 352
WIRE 720 352 688 352
WIRE 480 384 448 384
WIRE 848 384 688 384
WIRE 912 384 848 384
WIRE 1056 384 1056 224
WIRE 1056 384 992 384
WIRE 1120 384 1056 384
WIRE 400 416 336 416
WIRE 480 416 400 416
WIRE 720 416 720 352
WIRE 720 416 688 416
WIRE 336 448 336 416
WIRE 336 448 160 448
WIRE 720 480 720 416
WIRE 848 480 848 448
WIRE 1056 480 1056 448
WIRE 720 1056 688 1056
WIRE 688 1088 688 1056
WIRE 688 1088 672 1088
WIRE 720 1088 720 1056
WIRE 336 1104 336 448
WIRE 512 1104 336 1104
WIRE 608 1104 512 1104
WIRE 752 1120 672 1120
WIRE 912 1120 752 1120
WIRE 512 1200 512 1168
WIRE 752 1200 752 1184
FLAG 720 480 0
FLAG 848 480 0
FLAG 1056 480 0
FLAG 400 480 0
FLAG 160 528 0
FLAG 448 384 0
FLAG 720 1088 0
FLAG 512 1200 0
FLAG 752 1200 0
FLAG 912 1120 LM7806
IOPIN 912 1120 Out
FLAG 528 240 0
FLAG 1120 384 LM2595-out
IOPIN 1120 384 Out
SYMBOL cap 384 416 R0
WINDOW 3 -65 52 Left 2
WINDOW 0 -44 27 Left 2
SYMATTR Value 120µ
SYMATTR InstName C1
SYMBOL cap 1040 384 R0
WINDOW 0 41 26 Left 2
WINDOW 3 34 59 Left 2
SYMATTR InstName C2
SYMATTR Value 120µ
SYMBOL schottky 864 448 R180
WINDOW 0 39 43 Left 2
WINDOW 3 24 0 Left 2
SYMATTR InstName D1
SYMATTR Value 1N5819
SYMBOL ind 896 400 R270
WINDOW 0 32 56 VTop 2
WINDOW 3 5 56 VBottom 2
SYMATTR InstName L1
SYMATTR Value 100µ
SYMBOL voltage 160 432 R0
WINDOW 123 0 0 Left 0
WINDOW 39 0 0 Left 0
SYMATTR InstName V1
SYMATTR Value 9
SYMBOL AutoGenerated\\LM2595_ADJ_TRANS 576 384 R0
SYMATTR InstName U1
SYMBOL cap 832 128 R90
WINDOW 0 0 32 VBottom 2
WINDOW 3 17 -18 VTop 2
SYMATTR InstName C3
SYMATTR Value 10.52n
SYMBOL res 656 208 R90
WINDOW 0 0 56 VBottom 2
WINDOW 3 32 56 VTop 2
SYMATTR InstName R1
SYMATTR Value 1k
SYMBOL res 880 208 R90
WINDOW 0 0 56 VBottom 2
WINDOW 3 32 56 VTop 2
SYMATTR InstName R2
SYMATTR Value 3065
SYMBOL AutoGenerated\\LM7805 640 1104 R0
WINDOW 0 0 67 Bottom 2
WINDOW 3 -3 -69 Top 2
SYMATTR InstName U2
SYMBOL cap 736 1120 R0
WINDOW 0 5 -19 Left 2
SYMATTR InstName C4
SYMATTR Value 0.1µ
SYMBOL cap 496 1104 R0
WINDOW 0 -2 -19 Left 2
WINDOW 3 22 49 Left 2
SYMATTR InstName C5
SYMATTR Value 0.33µ
TEXT 1248 848 Left 2 !.incl LM2595_ADJ_TRANS.LIB
TEXT 1248 880 Left 2 !.tran 0 10m 0 1u
TEXT 880 840 Left 2 !;step param R 50 100 10
