Version 4
SHEET 1 1356 820
WIRE 960 -80 848 -80
WIRE 1088 -80 960 -80
WIRE 848 -48 848 -80
WIRE 960 64 960 -80
WIRE 976 64 960 64
WIRE 1088 80 1088 -80
WIRE 1088 80 1040 80
WIRE 1136 80 1088 80
WIRE 752 96 672 96
WIRE 848 96 848 16
WIRE 848 96 832 96
WIRE 960 96 928 96
WIRE 976 96 960 96
WIRE 960 144 960 96
WIRE 944 320 816 320
WIRE 1136 320 944 320
WIRE 816 352 816 320
WIRE 944 480 944 320
WIRE 992 480 944 480
WIRE 1136 496 1136 320
WIRE 1136 496 1056 496
WIRE 688 512 592 512
WIRE 784 512 752 512
WIRE 816 512 816 432
WIRE 816 512 784 512
WIRE 848 512 816 512
WIRE 944 512 912 512
WIRE 992 512 944 512
WIRE 944 592 944 512
WIRE 944 720 944 672
WIRE 1072 720 944 720
FLAG 592 592 0
FLAG 1008 112 0
FLAG 1008 48 5v
IOPIN 1008 48 In
FLAG 1024 464 5v
IOPIN 1024 464 In
FLAG 1024 528 0
FLAG 784 512 a
FLAG 944 512 high-pass
FLAG 848 96 c
FLAG 960 96 d
FLAG 1072 800 0
FLAG 672 176 0
FLAG 960 208 0
SYMBOL voltage 592 496 R0
WINDOW 123 24 124 Left 2
WINDOW 39 0 0 Left 0
SYMATTR Value2 AC 1
SYMATTR InstName V1
SYMATTR Value ""
SYMBOL res 944 80 R90
WINDOW 0 0 56 VBottom 2
WINDOW 3 32 56 VTop 2
SYMATTR InstName R3
SYMATTR Value 100k
SYMBOL res 848 80 R90
WINDOW 0 0 56 VBottom 2
WINDOW 3 35 59 VTop 2
SYMATTR InstName R4
SYMATTR Value 100k
SYMBOL cap 864 16 R180
WINDOW 0 24 56 Left 2
WINDOW 3 24 8 Left 2
SYMATTR InstName C3
SYMATTR Value 900n
SYMBOL cap 976 208 R180
WINDOW 0 24 56 Left 2
WINDOW 3 24 8 Left 2
SYMATTR InstName C4
SYMATTR Value 450n
SYMBOL Opamps\\opamp2 1008 16 R0
SYMATTR InstName U2
SYMATTR Value TL081
SYMBOL Opamps\\opamp2 1024 432 R0
WINDOW 3 12 96 Left 2
SYMATTR Value TL081
SYMATTR InstName U3
SYMBOL res 928 576 R0
SYMATTR InstName R5
SYMATTR Value 2000k
SYMBOL res 800 336 R0
SYMATTR InstName R6
SYMATTR Value 2000k
SYMBOL cap 912 496 R90
WINDOW 0 0 32 VBottom 2
WINDOW 3 32 32 VTop 2
SYMATTR InstName C5
SYMATTR Value 0.1µ
SYMBOL cap 752 496 R90
WINDOW 0 0 32 VBottom 2
WINDOW 3 32 32 VTop 2
SYMATTR InstName C6
SYMATTR Value 0.1µ
SYMBOL voltage 1072 704 R0
WINDOW 123 0 0 Left 0
WINDOW 39 0 0 Left 0
SYMATTR InstName V2
SYMATTR Value 2.5
SYMBOL voltage 672 80 R0
WINDOW 123 24 124 Left 2
WINDOW 39 0 0 Left 0
SYMATTR Value2 AC 1
SYMATTR InstName V3
SYMATTR Value ""
TEXT -416 -64 Left 2 !.incl TLC2272.LIB
TEXT -416 -40 Left 2 !.incl TL081.lib
TEXT -416 520 Left 2 !.ac dec 1000 0.1 1000
