Version 4
SHEET 1 1260 680
WIRE 208 -32 80 -32
WIRE 400 -32 208 -32
WIRE 80 0 80 -32
WIRE 208 128 208 -32
WIRE 256 128 208 128
WIRE 400 144 400 -32
WIRE 400 144 320 144
WIRE -144 160 -368 160
WIRE -48 160 -144 160
WIRE 48 160 16 160
WIRE 80 160 80 80
WIRE 80 160 48 160
WIRE 112 160 80 160
WIRE 208 160 176 160
WIRE 256 160 208 160
WIRE 208 240 208 160
FLAG -144 160 Stimulus
FLAG 288 112 5v
IOPIN 288 112 In
FLAG 288 176 0
FLAG 48 160 a
FLAG 208 160 b
FLAG -368 240 0
FLAG 208 320 0
SYMBOL Opamps\\opamp2 288 80 R0
WINDOW 3 12 96 Left 2
SYMATTR Value TL081
SYMATTR InstName U1
SYMBOL res 192 224 R0
SYMATTR InstName R1
SYMATTR Value 1472k
SYMBOL res 64 -16 R0
SYMATTR InstName R2
SYMATTR Value 2946k
SYMBOL cap 176 144 R90
WINDOW 0 0 32 VBottom 2
WINDOW 3 32 32 VTop 2
SYMATTR InstName C1
SYMATTR Value 0.1µ
SYMBOL cap 16 144 R90
WINDOW 0 0 32 VBottom 2
WINDOW 3 32 32 VTop 2
SYMATTR InstName C2
SYMATTR Value 0.1µ
SYMBOL voltage -368 144 R0
WINDOW 123 24 124 Left 2
WINDOW 39 0 0 Left 0
SYMATTR Value2 AC 1
SYMATTR InstName V1
SYMATTR Value ""
TEXT -416 -64 Left 2 !.incl TLC2272.LIB
TEXT -416 -40 Left 2 !.incl TL081.lib
TEXT -416 520 Left 2 !.ac dec 1000 0.1 1000
