Version 4
SHEET 1 1824 680
WIRE -960 -1360 -1024 -1360
WIRE -912 -1360 -960 -1360
WIRE -736 -1360 -848 -1360
WIRE -672 -1360 -736 -1360
WIRE -880 -1280 -880 -1296
WIRE -1840 -1072 -1888 -1072
WIRE -2032 -1056 -2080 -1056
WIRE -1936 -1056 -1984 -1056
WIRE -1888 -1056 -1888 -1072
WIRE -1248 -1040 -1408 -1040
WIRE -1072 -1040 -1248 -1040
WIRE -1248 -992 -1248 -1040
WIRE -2032 -976 -2032 -1056
WIRE -1984 -976 -2032 -976
WIRE -1936 -976 -1936 -1056
WIRE -1888 -976 -1936 -976
WIRE -1408 -976 -1408 -1040
WIRE -2080 -960 -2080 -976
WIRE -1520 -864 -1536 -864
WIRE -1408 -864 -1408 -912
WIRE -1408 -864 -1440 -864
WIRE -1360 -864 -1408 -864
WIRE -1248 -864 -1248 -912
WIRE -1248 -864 -1296 -864
WIRE -1200 -864 -1248 -864
WIRE -1072 -848 -1072 -1040
WIRE -1072 -848 -1136 -848
WIRE -1008 -848 -1072 -848
WIRE -1200 -832 -1232 -832
WIRE -1408 -800 -1408 -864
WIRE -1232 -784 -1232 -832
WIRE -2032 -768 -2096 -768
WIRE -2032 -720 -2032 -768
WIRE -1920 -720 -1952 -720
WIRE -1920 -624 -1968 -624
WIRE -1920 -576 -1968 -576
FLAG -2080 -960 0
FLAG -1840 -1072 Stimulus
FLAG -1920 -720 9V
IOPIN -1920 -720 Out
FLAG -2096 -688 0
FLAG -1920 -624 VoutBeatPulses
IOPIN -1920 -624 Out
FLAG -1536 -864 Stimulus
FLAG -1920 -576 VoutRateAnalogue
IOPIN -1920 -576 Out
FLAG -1008 -848 VoutBeatPulses
IOPIN -1008 -848 Out
FLAG -880 -1280 0
FLAG -1024 -1360 9V
IOPIN -1024 -1360 In
FLAG -960 -1296 0
FLAG -736 -1296 0
FLAG -672 -1360 5v
IOPIN -672 -1360 Out
FLAG -1408 -720 0
FLAG -1232 -784 0
FLAG -1168 -880 5v
IOPIN -1168 -880 In
FLAG -1168 -816 0
SYMBOL voltage -1984 -1072 R0
WINDOW 123 0 0 Left 0
WINDOW 39 0 0 Left 0
WINDOW 3 -89 197 Left 2
WINDOW 0 -13 54 Left 2
SYMATTR Value PWL file=PWLinput.csv
SYMATTR InstName V2
SYMBOL voltage -1888 -1072 R0
WINDOW 123 24 44 Left 2
WINDOW 39 0 0 Left 0
WINDOW 3 -386 233 Left 2
WINDOW 0 -11 56 Left 2
SYMATTR Value SINE({sineOffset} {sineAmplitude} {sineFreq})
SYMATTR InstName V3
SYMBOL voltage -2080 -1072 R0
WINDOW 123 0 0 Left 0
WINDOW 39 0 0 Left 0
WINDOW 3 3 160 Left 2
WINDOW 0 -13 55 Left 2
SYMATTR Value {dcAmplitude}
SYMATTR InstName V1
SYMBOL voltage -2096 -784 R0
WINDOW 123 24 44 Left 2
WINDOW 39 0 0 Left 0
WINDOW 3 -46 76 Left 2
WINDOW 0 -13 57 Left 2
SYMATTR Value 9
SYMATTR InstName V4
SYMBOL res -1936 -736 R90
WINDOW 0 -9 30 VBottom 2
WINDOW 3 34 56 VTop 2
SYMATTR InstName R_Sense
SYMATTR Value 0.010
SYMBOL LM7805 -880 -1344 R0
SYMATTR InstName U1
SYMBOL cap -752 -1360 R0
WINDOW 3 -63 56 Left 2
WINDOW 0 -48 27 Left 2
SYMATTR Value 0.33µ
SYMATTR InstName C2
SYMBOL cap -976 -1360 R0
WINDOW 0 -37 29 Left 2
WINDOW 3 -42 52 Left 2
SYMATTR InstName C3
SYMATTR Value 0.1µ
SYMBOL Opamps\\opamp2 -1168 -912 R0
SYMATTR InstName U2
SYMATTR Value TLC2272
SYMBOL res -1424 -880 R90
WINDOW 0 0 56 VBottom 2
WINDOW 3 32 56 VTop 2
SYMATTR InstName R1
SYMATTR Value 50.259k
SYMBOL res -1392 -704 R180
WINDOW 0 36 76 Left 2
WINDOW 3 36 40 Left 2
SYMATTR InstName R2
SYMATTR Value 50.784k
SYMBOL res -1232 -896 R180
WINDOW 0 36 76 Left 2
WINDOW 3 36 40 Left 2
SYMATTR InstName R3
SYMATTR Value 100k
SYMBOL cap -1424 -976 R0
SYMATTR InstName C1
SYMATTR Value 1.9µ
SYMBOL cap -1296 -880 R90
WINDOW 0 0 32 VBottom 2
WINDOW 3 32 32 VTop 2
SYMATTR InstName C4
SYMATTR Value 1.9µ
TEXT -2080 -1120 Left 2 !.tran 0 {transtop} 0 {timestep}
TEXT -1952 -1168 Left 2 !.include E344cfg.txt
TEXT -2288 -1384 Left 2 ;Don't change these -- used for auto-assessments.\nYou may modify input files while developing.\nFor submission: \n  * Use only 9V supply \n  * Connect "Stimulus" to your input\n  * Connect "VoutXXXX" to your output signals.\n  * Only one label name per net.
TEXT -2280 -1168 Left 2 ;Config file:
TEXT -2280 -1120 Left 2 ;Analysis setup:
TEXT -2272 -744 Left 2 ;Battery
TEXT -2280 -1032 Left 2 ;Sensor-\nemulating \nstimulus
TEXT -2272 -608 Left 2 ;Assessed nets:\nConnect to your outputs
TEXT -1552 -1400 Left 2 ;W. Deyzel.,  21750793\nDC = 1900 mV\nHeart rate pk = 66.6 mV
TEXT -1560 -1464 Left 2 !.incl TLC2272.LIB
TEXT -1560 -1440 Left 2 !.incl TL081.lib
LINE Normal -1792 -1008 -1856 -1008 2
LINE Normal -1792 -864 -1792 -1008 2
LINE Normal -1808 -880 -1792 -864 2
LINE Normal -1792 -864 -1808 -880 2
LINE Normal -1776 -880 -1792 -864 2
LINE Normal -2128 -1008 -2112 -1008 2
LINE Normal -2128 -928 -2128 -1008 2
LINE Normal -2128 -912 -2128 -928 2
LINE Normal -2096 -912 -2128 -912 2
LINE Normal -2112 -928 -2096 -912 2
LINE Normal -2096 -912 -2112 -928 2
LINE Normal -2112 -896 -2096 -912 2
LINE Normal -1968 -944 -1968 -992 2
LINE Normal -1856 -944 -1968 -944 2
LINE Normal -1856 -896 -1856 -944 2
LINE Normal -1872 -912 -1856 -896 2
LINE Normal -1856 -896 -1872 -912 2
LINE Normal -1840 -912 -1856 -896 2
LINE Normal -2304 -544 -2304 -1408 1
LINE Normal -1680 -1408 -1680 -544 1
LINE Normal -1680 -544 -2304 -544 1
LINE Normal -1680 -1408 -2304 -1408 1
