Version 4
SHEET 1 2552 2084
WIRE 784 -144 576 -144
WIRE 1216 -144 1216 -160
WIRE 1216 -144 864 -144
WIRE 992 0 960 0
WIRE 1216 16 1216 -144
WIRE 1216 16 1056 16
WIRE 384 32 320 32
WIRE 416 32 384 32
WIRE 576 32 576 -144
WIRE 576 32 496 32
WIRE 672 32 576 32
WIRE 832 32 736 32
WIRE 992 32 832 32
WIRE 320 48 320 32
WIRE 576 96 576 32
WIRE 832 112 832 32
WIRE 1216 112 1216 16
WIRE -64 144 -128 144
WIRE 960 160 960 0
WIRE 1088 160 960 160
WIRE -128 192 -128 144
WIRE 576 256 576 160
WIRE 736 256 576 256
WIRE 832 256 832 192
WIRE 832 256 736 256
WIRE 960 256 832 256
WIRE 1088 256 1088 160
WIRE 1088 256 1040 256
WIRE 1216 256 1216 192
WIRE 1216 256 1088 256
WIRE 1152 576 1008 576
WIRE 1488 576 1232 576
WIRE 1840 592 1616 592
WIRE 2016 592 1904 592
WIRE 1488 688 1488 576
WIRE 1488 688 1232 688
WIRE 1840 768 1808 768
WIRE 1232 784 1232 688
WIRE 1280 784 1232 784
WIRE 2016 784 2016 592
WIRE 2016 784 1904 784
WIRE 1488 800 1488 688
WIRE 1488 800 1344 800
WIRE 1616 800 1616 592
WIRE 1616 800 1568 800
WIRE 1648 800 1616 800
WIRE 1760 800 1728 800
WIRE 1840 800 1760 800
WIRE 384 816 384 32
WIRE 896 816 384 816
WIRE 1008 816 1008 576
WIRE 1008 816 960 816
WIRE 1056 816 1008 816
WIRE 1184 816 1120 816
WIRE 1280 816 1184 816
WIRE 1184 848 1184 816
WIRE 1760 864 1760 800
WIRE 1808 880 1808 768
WIRE 1904 880 1808 880
WIRE 1760 928 1184 928
WIRE 1760 1008 1760 928
WIRE 1792 1008 1760 1008
WIRE 1904 1008 1904 880
WIRE 1904 1008 1872 1008
WIRE 1936 1008 1904 1008
WIRE 2016 1008 2016 784
FLAG -64 224 -5v
IOPIN -64 224 Out
FLAG -64 64 5v
IOPIN -64 64 Out
FLAG -128 192 0
FLAG 1024 -16 5v
IOPIN 1024 -16 In
FLAG 320 128 0
FLAG 736 336 0
FLAG 1024 48 0
FLAG 1184 1008 0
FLAG 1312 768 5v
IOPIN 1312 768 In
FLAG 1312 832 0
FLAG 1872 752 5v
IOPIN 1872 752 In
FLAG 1872 816 0
SYMBOL voltage -64 48 R0
WINDOW 123 0 0 Left 0
WINDOW 39 0 0 Left 0
SYMATTR InstName V1
SYMATTR Value 5
SYMBOL voltage -64 128 R0
WINDOW 123 0 0 Left 0
WINDOW 39 0 0 Left 0
SYMATTR InstName V2
SYMATTR Value 5
SYMBOL res 512 16 R90
WINDOW 0 0 56 VBottom 2
WINDOW 3 32 56 VTop 2
SYMATTR InstName R1
SYMATTR Value 250k
SYMBOL res 880 -160 R90
WINDOW 0 0 56 VBottom 2
WINDOW 3 32 56 VTop 2
SYMATTR InstName R2
SYMATTR Value 250k
SYMBOL res 848 208 R180
WINDOW 0 36 76 Left 2
WINDOW 3 36 40 Left 2
SYMATTR InstName R3
SYMATTR Value 100k
SYMBOL res 944 272 R270
WINDOW 0 32 56 VTop 2
WINDOW 3 0 56 VBottom 2
SYMATTR InstName R4
SYMATTR Value 100k
SYMBOL Opamps\\opamp2 1024 -48 R0
SYMATTR InstName U1
SYMATTR Value TL081
SYMBOL cap 560 96 R0
SYMATTR InstName C1
SYMATTR Value 1µ
SYMBOL cap 736 16 R90
WINDOW 0 0 32 VBottom 2
WINDOW 3 32 32 VTop 2
SYMATTR InstName C2
SYMATTR Value 1µ
SYMBOL voltage 320 32 R0
WINDOW 3 24 152 Left 2
WINDOW 123 24 180 Left 2
WINDOW 39 0 0 Left 0
SYMATTR InstName V3
SYMATTR Value SINE(0 1 1)
SYMATTR Value2 AC 1
SYMBOL res 1200 96 R0
SYMATTR InstName R5
SYMATTR Value 500k
SYMBOL voltage 736 240 R0
WINDOW 123 0 0 Left 0
WINDOW 39 0 0 Left 0
SYMATTR InstName V4
SYMATTR Value 2
SYMBOL Opamps\\opamp2 1312 736 R0
SYMATTR InstName U2
SYMATTR Value TL081
SYMBOL cap 960 800 R90
WINDOW 0 0 32 VBottom 2
WINDOW 3 32 32 VTop 2
SYMATTR InstName C4
SYMATTR Value 1µ
SYMBOL cap 1120 800 R90
WINDOW 0 0 32 VBottom 2
WINDOW 3 32 32 VTop 2
SYMATTR InstName C5
SYMATTR Value 1µ
SYMBOL res 1168 832 R0
SYMATTR InstName R7
SYMATTR Value 250k
SYMBOL voltage 1184 912 R0
WINDOW 123 0 0 Left 0
WINDOW 39 0 0 Left 0
SYMATTR InstName V11
SYMATTR Value 2
SYMBOL res 1248 560 R90
WINDOW 0 0 56 VBottom 2
WINDOW 3 32 56 VTop 2
SYMATTR InstName R8
SYMATTR Value 250k
SYMBOL res 1584 784 R90
WINDOW 0 0 56 VBottom 2
WINDOW 3 32 56 VTop 2
SYMATTR InstName R9
SYMATTR Value 25k
SYMBOL res 1744 784 R90
WINDOW 0 0 56 VBottom 2
WINDOW 3 32 56 VTop 2
SYMATTR InstName R10
SYMATTR Value 25k
SYMBOL Opamps\\opamp2 1872 720 R0
SYMATTR InstName U3
SYMATTR Value TL081
SYMBOL cap 1744 864 R0
WINDOW 3 38 54 Left 2
SYMATTR InstName C6
SYMATTR Value 1µ
SYMBOL res 1888 992 R90
WINDOW 0 0 56 VBottom 2
WINDOW 3 32 56 VTop 2
SYMATTR InstName R11
SYMATTR Value 65k
SYMBOL res 2032 992 R90
WINDOW 0 0 56 VBottom 2
WINDOW 3 32 56 VTop 2
SYMATTR InstName R12
SYMATTR Value 250k
SYMBOL cap 1904 576 R90
WINDOW 0 0 32 VBottom 2
WINDOW 3 32 32 VTop 2
SYMATTR InstName C7
SYMATTR Value 1µ
TEXT -312 -648 Left 2 !.incl TLC2272.LIB
TEXT -312 -624 Left 2 !.incl TL081.lib
TEXT -314 1058 Left 2 !.tran 0 10 0 1m
