Version 4
SHEET 1 1824 680
WIRE -1040 -1312 -1216 -1312
WIRE -976 -1312 -1040 -1312
WIRE -832 -1296 -912 -1296
WIRE -736 -1296 -832 -1296
WIRE -1840 -1072 -1888 -1072
WIRE -2032 -1056 -2080 -1056
WIRE -1936 -1056 -1984 -1056
WIRE -1888 -1056 -1888 -1072
WIRE -192 -1056 -224 -1056
WIRE -32 -1056 -112 -1056
WIRE -896 -1040 -1008 -1040
WIRE -752 -1040 -896 -1040
WIRE -1280 -1024 -1392 -1024
WIRE -1136 -1024 -1280 -1024
WIRE -1008 -1008 -1008 -1040
WIRE -1392 -992 -1392 -1024
WIRE -2032 -976 -2032 -1056
WIRE -1984 -976 -2032 -976
WIRE -1936 -976 -1936 -1056
WIRE -1888 -976 -1936 -976
WIRE -368 -976 -544 -976
WIRE -224 -976 -224 -1056
WIRE -224 -976 -288 -976
WIRE -2080 -960 -2080 -976
WIRE -224 -944 -224 -976
WIRE -176 -944 -224 -944
WIRE -32 -928 -32 -1056
WIRE -32 -928 -112 -928
WIRE 32 -928 -32 -928
WIRE -896 -912 -896 -1040
WIRE -880 -912 -896 -912
WIRE -176 -912 -224 -912
WIRE -1280 -896 -1280 -1024
WIRE -1264 -896 -1280 -896
WIRE -752 -896 -752 -1040
WIRE -752 -896 -816 -896
WIRE -704 -896 -752 -896
WIRE -1136 -880 -1136 -1024
WIRE -1136 -880 -1200 -880
WIRE -1104 -880 -1136 -880
WIRE -1008 -880 -1008 -944
WIRE -1008 -880 -1024 -880
WIRE -896 -880 -928 -880
WIRE -880 -880 -896 -880
WIRE -1488 -864 -1520 -864
WIRE -1392 -864 -1392 -928
WIRE -1392 -864 -1408 -864
WIRE -1280 -864 -1312 -864
WIRE -1264 -864 -1280 -864
WIRE -224 -864 -224 -912
WIRE -224 -864 -288 -864
WIRE -224 -848 -224 -864
WIRE -896 -832 -896 -880
WIRE -1280 -816 -1280 -864
WIRE -2032 -768 -2096 -768
WIRE -2032 -720 -2032 -768
WIRE -1920 -720 -1952 -720
WIRE -1168 -672 -1312 -672
WIRE -1888 -608 -1936 -608
WIRE -1312 -592 -1312 -672
WIRE -1280 -592 -1312 -592
WIRE -1168 -576 -1168 -672
WIRE -1168 -576 -1216 -576
WIRE -1152 -576 -1168 -576
WIRE -1392 -560 -1392 -592
WIRE -1280 -560 -1392 -560
WIRE -1392 -544 -1392 -560
WIRE -912 -544 -912 -576
WIRE -816 -544 -912 -544
WIRE -912 -528 -912 -544
FLAG -2080 -960 0
FLAG -1840 -1072 Stimulus
FLAG -1920 -720 9V
IOPIN -1920 -720 Out
FLAG -2096 -688 0
FLAG -1216 -1312 9V
IOPIN -1216 -1312 In
FLAG -1888 -608 Vout
IOPIN -1888 -608 Out
FLAG -1520 -864 Stimulus
FLAG -1040 -1248 0
FLAG -912 -1328 0
FLAG -832 -1232 0
FLAG -1232 -848 0
FLAG -736 -1296 5v
IOPIN -736 -1296 Out
FLAG -1232 -912 5v
IOPIN -1232 -912 In
FLAG -704 -896 filter-out
IOPIN -704 -896 Out
FLAG -1280 -752 0
FLAG -1392 -672 5v
IOPIN -1392 -672 In
FLAG -1392 -464 0
FLAG -1152 -576 ofset
IOPIN -1152 -576 Out
FLAG -368 -864 filter-out
IOPIN -368 -864 In
FLAG -144 -896 0
FLAG -144 -960 5v
IOPIN -144 -960 In
FLAG -912 -656 5v
IOPIN -912 -656 In
FLAG -912 -448 0
FLAG -816 -544 Vgnd
IOPIN -816 -544 Out
FLAG -224 -768 Vgnd
IOPIN -224 -768 Out
FLAG -848 -864 0
FLAG -848 -928 5v
IOPIN -848 -928 In
FLAG -896 -768 0
FLAG 32 -928 Vout
IOPIN 32 -928 Out
FLAG -544 -976 ofset
IOPIN -544 -976 In
FLAG -1248 -544 0
FLAG -1248 -608 5v
IOPIN -1248 -608 In
SYMBOL voltage -1984 -1072 R0
WINDOW 123 0 0 Left 0
WINDOW 39 0 0 Left 0
WINDOW 3 -89 197 Left 2
WINDOW 0 -13 54 Left 2
SYMATTR Value PWL file=PWLinput.csv
SYMATTR InstName V2
SYMBOL voltage -1888 -1072 R0
WINDOW 123 24 44 Left 2
WINDOW 39 0 0 Left 0
WINDOW 3 -386 233 Left 2
WINDOW 0 -11 56 Left 2
SYMATTR Value SINE({sineOffset} {sineAmplitude} {sineFreq})
SYMATTR InstName V3
SYMBOL voltage -2080 -1072 R0
WINDOW 123 0 0 Left 0
WINDOW 39 0 0 Left 0
WINDOW 3 3 160 Left 2
WINDOW 0 -13 55 Left 2
SYMATTR Value {dcAmplitude}
SYMATTR InstName V1
SYMBOL voltage -2096 -784 R0
WINDOW 123 24 44 Left 2
WINDOW 39 0 0 Left 0
WINDOW 3 -46 76 Left 2
WINDOW 0 -13 57 Left 2
SYMATTR Value 9
SYMATTR InstName V4
SYMBOL res -1936 -736 R90
WINDOW 0 -9 30 VBottom 2
WINDOW 3 34 56 VTop 2
SYMATTR InstName R_Sense
SYMATTR Value 0.010
SYMBOL AutoGenerated\\LM7805 -944 -1312 R0
SYMATTR InstName U3
SYMBOL cap -1056 -1312 R0
WINDOW 3 -71 31 Left 2
SYMATTR Value 0.33µ
SYMATTR InstName C1
SYMBOL cap -848 -1296 R0
SYMATTR InstName C3
SYMATTR Value 0.1µ
SYMBOL res -1296 -880 R90
WINDOW 0 0 56 VBottom 2
WINDOW 3 32 56 VTop 2
SYMATTR InstName R1
SYMATTR Value 100k
SYMBOL res -1392 -880 R90
WINDOW 0 0 56 VBottom 2
WINDOW 3 35 59 VTop 2
SYMATTR InstName R2
SYMATTR Value 100k
SYMBOL cap -1376 -928 R180
WINDOW 0 24 56 Left 2
WINDOW 3 24 8 Left 2
SYMATTR InstName C2
SYMATTR Value 159n
SYMBOL cap -1264 -752 R180
WINDOW 0 24 56 Left 2
WINDOW 3 24 8 Left 2
SYMATTR InstName C4
SYMATTR Value 79n
SYMBOL Opamps\\opamp2 -1232 -944 R0
SYMATTR InstName U1
SYMATTR Value TLC2272
SYMBOL res -272 -992 R90
WINDOW 0 0 56 VBottom 2
WINDOW 3 32 56 VTop 2
SYMATTR InstName R3
SYMATTR Value 21k
SYMBOL res -272 -880 R90
WINDOW 0 0 56 VBottom 2
WINDOW 3 32 56 VTop 2
SYMATTR InstName R4
SYMATTR Value 21k
SYMBOL res -96 -1072 R90
WINDOW 0 0 56 VBottom 2
WINDOW 3 32 56 VTop 2
SYMATTR InstName R5
SYMATTR Value 400k
SYMBOL res -208 -752 R180
WINDOW 0 36 76 Left 2
WINDOW 3 36 40 Left 2
SYMATTR InstName R6
SYMATTR Value 400k
SYMBOL res -1408 -688 R0
SYMATTR InstName R7
SYMATTR Value 1907
SYMBOL res -1408 -560 R0
SYMATTR InstName R
SYMATTR Value 1k
SYMBOL Opamps\\opamp2 -144 -992 R0
SYMATTR InstName U4
SYMATTR Value TLC2272
SYMBOL res -928 -672 R0
SYMATTR InstName R9
SYMATTR Value 5k
SYMBOL res -928 -544 R0
SYMATTR InstName R10
SYMATTR Value 5k
SYMBOL res -912 -896 R90
WINDOW 0 0 56 VBottom 2
WINDOW 3 32 56 VTop 2
SYMATTR InstName R8
SYMATTR Value 100k
SYMBOL res -1008 -896 R90
WINDOW 0 0 56 VBottom 2
WINDOW 3 35 59 VTop 2
SYMATTR InstName R11
SYMATTR Value 100k
SYMBOL cap -992 -944 R180
WINDOW 0 24 56 Left 2
WINDOW 3 24 8 Left 2
SYMATTR InstName C5
SYMATTR Value 159n
SYMBOL cap -880 -768 R180
WINDOW 0 24 56 Left 2
WINDOW 3 24 8 Left 2
SYMATTR InstName C6
SYMATTR Value 79n
SYMBOL Opamps\\opamp2 -848 -960 R0
SYMATTR InstName U2
SYMATTR Value TLC2272
SYMBOL Opamps\\opamp2 -1248 -640 R0
SYMATTR InstName U5
SYMATTR Value TL081
TEXT -2080 -1120 Left 2 !.tran 0 {transtop} 0 {timestep}
TEXT -1952 -1168 Left 2 !.include E344cfg.txt
TEXT -2288 -1384 Left 2 ;Don't change these -- used for auto-assessments.\nYou may modify input files while developing.\nFor submission: \n  * Use only 9V supply \n  * Connect "Stimulus" to your input\n  * Connect "Vout" to your output.\n  * Only one label name per net.
TEXT -2280 -1168 Left 2 ;Config file:
TEXT -2280 -1120 Left 2 ;Analysis setup:
TEXT -2272 -744 Left 2 ;Battery
TEXT -2280 -1032 Left 2 ;Sensor-\nemulating \nstimulus
TEXT -2272 -608 Left 2 ;Assessed nets:\nConnect to your outputs
TEXT -1552 -1400 Left 2 ;W. Deyzel,  21750793\nV(0degV) = 580 mV\ndeltaV/degV = 30 mV
TEXT -1560 -1312 Left 2 !.incl TLC2272.LIB
TEXT -1560 -1288 Left 2 !.incl TL081.lib
LINE Normal -1792 -1008 -1856 -1008 2
LINE Normal -1792 -864 -1792 -1008 2
LINE Normal -1808 -880 -1792 -864 2
LINE Normal -1792 -864 -1808 -880 2
LINE Normal -1776 -880 -1792 -864 2
LINE Normal -2128 -1008 -2112 -1008 2
LINE Normal -2128 -928 -2128 -1008 2
LINE Normal -2128 -912 -2128 -928 2
LINE Normal -2096 -912 -2128 -912 2
LINE Normal -2112 -928 -2096 -912 2
LINE Normal -2096 -912 -2112 -928 2
LINE Normal -2112 -896 -2096 -912 2
LINE Normal -1968 -944 -1968 -992 2
LINE Normal -1856 -944 -1968 -944 2
LINE Normal -1856 -896 -1856 -944 2
LINE Normal -1872 -912 -1856 -896 2
LINE Normal -1856 -896 -1872 -912 2
LINE Normal -1840 -912 -1856 -896 2
LINE Normal -2304 -544 -2304 -1408 1
LINE Normal -1680 -1408 -1680 -544 1
LINE Normal -1680 -544 -2304 -544 1
LINE Normal -1680 -1408 -2304 -1408 1
