Version 4
SHEET 1 1600 1236
WIRE 768 144 688 144
WIRE 896 144 832 144
WIRE 560 224 528 224
WIRE 688 224 688 144
WIRE 688 224 640 224
WIRE 784 224 688 224
WIRE 896 224 896 144
WIRE 896 224 864 224
WIRE 1056 224 896 224
WIRE 528 240 528 224
WIRE 688 288 688 224
WIRE 688 288 432 288
WIRE 432 352 432 288
WIRE 480 352 432 352
WIRE 720 352 688 352
WIRE 480 384 448 384
WIRE 848 384 688 384
WIRE 912 384 848 384
WIRE 1056 384 1056 224
WIRE 1056 384 992 384
WIRE 1216 384 1056 384
WIRE 1264 384 1216 384
WIRE 1216 400 1216 384
WIRE 400 416 256 416
WIRE 480 416 400 416
WIRE 720 416 720 352
WIRE 720 416 688 416
WIRE 720 480 720 416
WIRE 848 480 848 448
WIRE 1056 480 1056 448
WIRE 688 576 656 576
WIRE 656 608 656 576
WIRE 656 608 640 608
WIRE 688 608 688 576
WIRE 480 624 304 624
WIRE 576 624 480 624
WIRE 720 640 640 640
WIRE 832 640 720 640
WIRE 880 640 832 640
WIRE 480 720 480 688
WIRE 720 720 720 704
FLAG 720 480 0
FLAG 848 480 0
FLAG 1056 480 0
FLAG 400 480 0
FLAG 304 704 0
FLAG 448 384 0
FLAG 688 608 0
FLAG 480 720 0
FLAG 720 720 0
FLAG 880 640 LM78L05-out
IOPIN 880 640 Out
FLAG 528 240 0
FLAG 1264 384 LM2595-out
IOPIN 1264 384 Out
FLAG 256 496 0
FLAG 832 720 0
FLAG 1216 480 0
SYMBOL cap 384 416 R0
WINDOW 3 -65 52 Left 2
WINDOW 0 -44 27 Left 2
SYMATTR Value 120µ
SYMATTR InstName C1
SYMBOL cap 1040 384 R0
WINDOW 0 41 26 Left 2
WINDOW 3 34 59 Left 2
SYMATTR InstName C2
SYMATTR Value 120µ
SYMBOL schottky 864 448 R180
WINDOW 0 39 43 Left 2
WINDOW 3 24 0 Left 2
SYMATTR InstName D1
SYMATTR Value 1N5819
SYMBOL ind 896 400 R270
WINDOW 0 32 56 VTop 2
WINDOW 3 5 56 VBottom 2
SYMATTR InstName L1
SYMATTR Value 100µ
SYMBOL voltage 304 608 R0
WINDOW 123 0 0 Left 0
WINDOW 39 0 0 Left 0
SYMATTR InstName V1
SYMATTR Value 9
SYMBOL AutoGenerated\\LM2595_ADJ_TRANS 576 384 R0
SYMATTR InstName LM2595
SYMBOL cap 832 128 R90
WINDOW 0 0 32 VBottom 2
WINDOW 3 17 -18 VTop 2
SYMATTR InstName C3
SYMATTR Value 10.52n
SYMBOL res 656 208 R90
WINDOW 0 0 56 VBottom 2
WINDOW 3 32 56 VTop 2
SYMATTR InstName R1
SYMATTR Value 1k
SYMBOL res 880 208 R90
WINDOW 0 0 56 VBottom 2
WINDOW 3 32 56 VTop 2
SYMATTR InstName R2
SYMATTR Value 3065
SYMBOL AutoGenerated\\LM7805 608 624 R0
WINDOW 0 0 67 Bottom 2
WINDOW 3 -3 -69 Top 2
SYMATTR InstName U2
SYMBOL cap 704 640 R0
WINDOW 0 5 -19 Left 2
SYMATTR InstName C4
SYMATTR Value 0.1µ
SYMBOL cap 464 624 R0
WINDOW 0 -2 -19 Left 2
WINDOW 3 22 49 Left 2
SYMATTR InstName C5
SYMATTR Value 0.33µ
SYMBOL voltage 256 400 R0
WINDOW 123 0 0 Left 0
WINDOW 39 0 0 Left 0
SYMATTR InstName V2
SYMATTR Value 9
SYMBOL res 816 624 R0
SYMATTR InstName R3
SYMATTR Value 50
SYMBOL res 1200 384 R0
SYMATTR InstName LOAD
SYMATTR Value 50
TEXT 56 160 Left 2 !.incl LM2595_ADJ_TRANS.LIB
TEXT 56 192 Left 2 !.tran 0 3m 0 1u
