Version 4
SHEET 1 1824 680
WIRE -1920 -1120 -2112 -1120
WIRE -2112 -1104 -2112 -1120
WIRE -2112 -1008 -2112 -1024
WIRE -624 -944 -832 -944
WIRE -784 -864 -784 -880
WIRE -832 -848 -832 -944
WIRE -816 -848 -832 -848
WIRE -624 -832 -624 -944
WIRE -624 -832 -752 -832
WIRE -2032 -816 -2096 -816
WIRE -1920 -816 -1952 -816
WIRE -816 -816 -912 -816
WIRE -624 -800 -624 -832
WIRE -112 -800 -624 -800
WIRE -784 -784 -784 -800
WIRE -656 -752 -848 -752
WIRE -912 -736 -912 -816
WIRE -912 -736 -1408 -736
WIRE -784 -672 -784 -688
WIRE -848 -656 -848 -752
WIRE -816 -656 -848 -656
WIRE -496 -656 -560 -656
WIRE -656 -640 -656 -752
WIRE -656 -640 -752 -640
WIRE -912 -624 -912 -736
WIRE -816 -624 -912 -624
WIRE -1904 -608 -1920 -608
WIRE -560 -608 -560 -656
WIRE -528 -608 -560 -608
WIRE -496 -608 -528 -608
WIRE -784 -592 -784 -608
WIRE -560 -576 -560 -608
WIRE -528 -528 -528 -608
WIRE -416 -528 -416 -560
WIRE -416 -528 -528 -528
FLAG -2112 -1008 0
FLAG -1920 -1120 Vheartsensor
IOPIN -1920 -1120 In
FLAG -1920 -816 9V
IOPIN -1920 -816 Out
FLAG -2096 -736 0
FLAG -336 -1280 9V
IOPIN -336 -1280 In
FLAG -144 -1216 0
FLAG 80 -1280 5V
IOPIN 80 -1280 Out
FLAG -784 -784 0
FLAG -784 -592 0
FLAG -784 -880 5V
IOPIN -784 -880 Out
FLAG -784 -688 5V
IOPIN -784 -688 Out
FLAG -1904 -608 Vheartpulsesout
IOPIN -1904 -608 Out
FLAG -1408 -736 Vheartsensor
IOPIN -1408 -736 In
FLAG -112 -800 Vheartpulsesout
IOPIN -112 -800 Out
FLAG -560 -576 0
FLAG -176 -688 5V
IOPIN -176 -688 Out
FLAG -176 -624 0
SYMBOL voltage -2112 -1120 R0
WINDOW 123 0 0 Left 0
WINDOW 39 0 0 Left 0
WINDOW 3 44 52 Left 2
WINDOW 0 -13 54 Left 2
SYMATTR Value PWL file=HeartSensorPWL.csv
SYMATTR InstName V1
SYMBOL voltage -2096 -832 R0
WINDOW 123 24 44 Left 2
WINDOW 39 0 0 Left 0
WINDOW 3 -46 76 Left 2
WINDOW 0 -13 57 Left 2
SYMATTR Value 9
SYMATTR InstName V4
SYMBOL res -1936 -832 R90
WINDOW 0 -7 47 VBottom 2
WINDOW 3 34 56 VTop 2
SYMATTR InstName R_Sense
SYMATTR Value 0.010
SYMBOL LM7805 -144 -1264 R0
WINDOW 3 -83 -66 Top 2
SYMATTR InstName U1
SYMBOL opamp2 -784 -896 R0
SYMATTR InstName U2
SYMATTR Value TLC2272
SYMATTR SpiceModel TLC2272
SYMBOL opamp2 -784 -704 R0
SYMATTR InstName U3
SYMATTR Value TL081
SYMATTR SpiceModel TL081
SYMBOL dflop -416 -704 R0
SYMATTR InstName A1
SYMBOL LT1018 -176 -656 R0
SYMATTR InstName U4
TEXT -2072 -904 Left 2 !.tran 0 {transtop} 0 {timestep}
TEXT -2072 -936 Left 2 !.include A3heartcfg.txt
TEXT -2288 -1384 Left 2 ;Don't change these -- used for auto-assessments.\nYou may modify input files while developing.\nFor submission: \n  * Use only 9V supply \n  * Connect "Vheartsensor" to your \n               conditioning circuit's input\n  * Connect "Vheartpulsesout" to your output signal.\n  * Only one label name per net.
TEXT -2272 -936 Left 2 ;Config file:
TEXT -2272 -904 Left 2 ;Analysis setup:
TEXT -2272 -792 Left 2 ;Battery
TEXT -2280 -1080 Left 2 ;Sensor-\nemulating \nstimulus
TEXT -1552 -1400 Left 2 ;=============================\nREPLACE WITH YOUR DETAILS\nE. Stewdent.,  00024601\nVheartsensor offset = 500 mV\nVheartsensor ampl = 20 mV\n=============================
TEXT -1552 -1160 Left 2 ;==========================================================================================\nHeart signal conditioning circuit (only copy and paste the given op-amps, or use those given in the working directory only)\n==========================================================================================
TEXT -384 -1400 Left 2 ;=============================\nVoltage regulation (complete this)\n=============================
TEXT -952 -1312 Left 2 !.incl TLC2272.LIB\n.incl TL081.LIB\n.incl LM78XX_RS.lib
TEXT -2272 -656 Left 2 ;Connect to your conditioning circuit's output
TEXT -960 -1400 Left 2 ;=============================\nIncludes (don't fiddle with this!!)\n=============================
TEXT -1584 -968 Left 2 ;=======================================\nYour circuit goes here, these are just placeholders.\n=======================================
LINE Normal -2304 -544 -2304 -1408 1
LINE Normal -1680 -1408 -1680 -544 1
LINE Normal -1680 -544 -2304 -544 1
LINE Normal -1680 -1408 -2304 -1408 1
