Version 4
SHEET 1 1824 680
WIRE -272 -1280 -336 -1280
WIRE -176 -1280 -272 -1280
WIRE -16 -1280 -112 -1280
WIRE 80 -1280 -16 -1280
WIRE -272 -1264 -272 -1280
WIRE -16 -1264 -16 -1280
WIRE -1920 -1120 -2112 -1120
WIRE -2112 -1104 -2112 -1120
WIRE -2112 -1008 -2112 -1024
WIRE -2032 -816 -2096 -816
WIRE -1920 -816 -1952 -816
WIRE -1008 -752 -1120 -752
WIRE -864 -752 -1008 -752
WIRE -1120 -736 -1120 -752
WIRE -96 -704 -128 -704
WIRE 64 -704 -16 -704
WIRE -1008 -624 -1008 -752
WIRE -992 -624 -1008 -624
WIRE -272 -624 -432 -624
WIRE -128 -624 -128 -704
WIRE -128 -624 -192 -624
WIRE -1904 -608 -1920 -608
WIRE -864 -608 -864 -752
WIRE -864 -608 -928 -608
WIRE -832 -608 -864 -608
WIRE -1216 -592 -1296 -592
WIRE -1120 -592 -1120 -672
WIRE -1120 -592 -1136 -592
WIRE -1008 -592 -1040 -592
WIRE -992 -592 -1008 -592
WIRE -128 -592 -128 -624
WIRE -80 -592 -128 -592
WIRE 64 -576 64 -704
WIRE 64 -576 -16 -576
WIRE 128 -576 64 -576
WIRE -80 -560 -128 -560
WIRE -1008 -544 -1008 -592
WIRE -128 -496 -128 -560
WIRE -1728 -432 -1872 -432
WIRE -2064 -416 -2208 -416
WIRE -1024 -368 -1152 -368
WIRE -832 -368 -1024 -368
WIRE -1872 -352 -1872 -432
WIRE -1840 -352 -1872 -352
WIRE -2208 -336 -2208 -416
WIRE -2176 -336 -2208 -336
WIRE -1728 -336 -1728 -432
WIRE -1728 -336 -1776 -336
WIRE -1712 -336 -1728 -336
WIRE -1152 -336 -1152 -368
WIRE -2064 -320 -2064 -416
WIRE -2064 -320 -2112 -320
WIRE -2048 -320 -2064 -320
WIRE -1936 -320 -1936 -352
WIRE -1840 -320 -1936 -320
WIRE -2288 -304 -2288 -336
WIRE -2176 -304 -2288 -304
WIRE -1936 -304 -1936 -320
WIRE -2288 -288 -2288 -304
WIRE -1024 -208 -1024 -368
WIRE -976 -208 -1024 -208
WIRE -240 -208 -368 -208
WIRE -128 -208 -160 -208
WIRE -832 -192 -832 -368
WIRE -832 -192 -912 -192
WIRE -16 -192 -64 -192
WIRE 32 -192 -16 -192
WIRE -1280 -176 -1376 -176
WIRE -1184 -176 -1216 -176
WIRE -1152 -176 -1152 -256
WIRE -1152 -176 -1184 -176
WIRE -1120 -176 -1152 -176
WIRE -1024 -176 -1056 -176
WIRE -976 -176 -1024 -176
WIRE -336 -176 -368 -176
WIRE -192 -176 -256 -176
WIRE -128 -176 -192 -176
WIRE -1024 -96 -1024 -176
WIRE -192 -32 -192 -176
WIRE -128 -32 -192 -32
WIRE -16 -32 -16 -192
WIRE -16 -32 -48 -32
FLAG -2112 -1008 0
FLAG -1920 -1120 Vheartsensor
IOPIN -1920 -1120 In
FLAG -1920 -816 9V
IOPIN -1920 -816 Out
FLAG -2096 -736 0
FLAG -336 -1280 9V
IOPIN -336 -1280 In
FLAG -144 -1216 0
FLAG 80 -1280 5V
IOPIN 80 -1280 Out
FLAG -1904 -608 Vheartpulsesout
IOPIN -1904 -608 Out
FLAG -1376 -176 Vheartsensor
IOPIN -1376 -176 In
FLAG 32 -192 Vheartpulsesout
IOPIN 32 -192 Out
FLAG -960 -576 0
FLAG -960 -640 5v
IOPIN -960 -640 In
FLAG -1008 -480 0
FLAG -432 -624 filter-out
IOPIN -432 -624 In
FLAG -48 -544 0
FLAG -48 -608 5v
IOPIN -48 -608 In
FLAG -832 -608 filter-out
IOPIN -832 -608 Out
FLAG -944 -224 5v
IOPIN -944 -224 In
FLAG -944 -160 0
FLAG -832 -192 high-pass-out
IOPIN -832 -192 Out
FLAG -1296 -592 high-pass-out
IOPIN -1296 -592 In
FLAG -1024 -16 ofset
IOPIN -1024 -16 In
FLAG -128 -496 ofset
IOPIN -128 -496 In
FLAG 128 -576 amplify
IOPIN 128 -576 Out
FLAG -2288 -416 5v
IOPIN -2288 -416 In
FLAG -2288 -208 0
FLAG -2048 -320 ref
IOPIN -2048 -320 Out
FLAG -2144 -288 0
FLAG -2144 -352 5v
IOPIN -2144 -352 In
FLAG -1184 -176 a
FLAG -1024 -176 b
FLAG -1120 -592 c
FLAG -1008 -592 d
FLAG -128 -560 e
FLAG -128 -624 f
FLAG -2288 -304 h
FLAG -1936 -432 5v
IOPIN -1936 -432 In
FLAG -1936 -224 0
FLAG -1712 -336 ofset
IOPIN -1712 -336 Out
FLAG -1808 -304 0
FLAG -1808 -368 5v
IOPIN -1808 -368 In
FLAG -96 -160 0
FLAG -96 -224 5v
IOPIN -96 -224 In
FLAG -368 -208 amplify
IOPIN -368 -208 In
FLAG -368 -176 ref
IOPIN -368 -176 In
FLAG -272 -1200 0
FLAG -16 -1200 0
SYMBOL voltage -2112 -1120 R0
WINDOW 123 0 0 Left 0
WINDOW 39 0 0 Left 0
WINDOW 3 44 52 Left 2
WINDOW 0 -13 54 Left 2
SYMATTR Value PWL file=HeartSensorPWL.csv
SYMATTR InstName V1
SYMBOL voltage -2096 -832 R0
WINDOW 123 24 44 Left 2
WINDOW 39 0 0 Left 0
WINDOW 3 -46 76 Left 2
WINDOW 0 -13 57 Left 2
SYMATTR Value 9
SYMATTR InstName V4
SYMBOL res -1936 -832 R90
WINDOW 0 -7 47 VBottom 2
WINDOW 3 34 56 VTop 2
SYMATTR InstName R_Sense
SYMATTR Value 0.010
SYMBOL LM7805 -144 -1264 R0
WINDOW 3 -83 -66 Top 2
SYMATTR InstName U1
SYMBOL res -1024 -608 R90
WINDOW 0 0 56 VBottom 2
WINDOW 3 32 56 VTop 2
SYMATTR InstName R1
SYMATTR Value 100k
SYMBOL res -1120 -608 R90
WINDOW 0 0 56 VBottom 2
WINDOW 3 35 59 VTop 2
SYMATTR InstName R2
SYMATTR Value 100k
SYMBOL cap -1104 -672 R180
WINDOW 0 24 56 Left 2
WINDOW 3 24 8 Left 2
SYMATTR InstName C3
SYMATTR Value 900n
SYMBOL cap -992 -480 R180
WINDOW 0 24 56 Left 2
WINDOW 3 24 8 Left 2
SYMATTR InstName C4
SYMATTR Value 450n
SYMBOL Opamps\\opamp2 -960 -672 R0
SYMATTR InstName U3
SYMATTR Value TL081
SYMBOL res -176 -640 R90
WINDOW 0 0 56 VBottom 2
WINDOW 3 32 56 VTop 2
SYMATTR InstName R3
SYMATTR Value 10k
SYMBOL res 0 -720 R90
WINDOW 0 0 56 VBottom 2
WINDOW 3 32 56 VTop 2
SYMATTR InstName R4
SYMATTR Value 480k
SYMBOL Opamps\\opamp2 -944 -256 R0
WINDOW 3 12 96 Left 2
SYMATTR Value TL081
SYMATTR InstName U4
SYMBOL res -1040 -112 R0
SYMATTR InstName R5
SYMATTR Value 2000k
SYMBOL res -1168 -352 R0
SYMATTR InstName R6
SYMATTR Value 750530
SYMBOL cap -1056 -192 R90
WINDOW 0 0 32 VBottom 2
WINDOW 3 32 32 VTop 2
SYMATTR InstName C5
SYMATTR Value 0.1µ
SYMBOL cap -1216 -192 R90
WINDOW 0 0 32 VBottom 2
WINDOW 3 32 32 VTop 2
SYMATTR InstName C6
SYMATTR Value 0.1µ
SYMBOL res -2304 -432 R0
SYMATTR InstName R7
SYMATTR Value 50k
SYMBOL res -2304 -304 R0
SYMATTR InstName R8
SYMATTR Value 150k
SYMBOL Opamps\\opamp2 -2144 -384 R0
SYMATTR InstName U5
SYMATTR Value TL081
SYMBOL res -1952 -448 R0
SYMATTR InstName R9
SYMATTR Value 500k
SYMBOL res -1952 -320 R0
SYMATTR InstName R10
SYMATTR Value 500k
SYMBOL Opamps\\opamp2 -1808 -400 R0
SYMATTR InstName U6
SYMATTR Value TL081
SYMBOL res -144 -224 R90
WINDOW 0 0 56 VBottom 2
WINDOW 3 32 56 VTop 2
SYMATTR InstName R11
SYMATTR Value 10k
SYMBOL res -240 -192 R90
WINDOW 0 0 56 VBottom 2
WINDOW 3 32 56 VTop 2
SYMATTR InstName R12
SYMATTR Value 10k
SYMBOL res -32 -48 R90
WINDOW 0 0 56 VBottom 2
WINDOW 3 32 56 VTop 2
SYMATTR InstName R13
SYMATTR Value 1000k
SYMBOL Comparators\\LT1018 -96 -192 R0
WINDOW 3 -46 64 Left 2
SYMATTR InstName U7
SYMBOL Opamps\\opamp2 -48 -640 R0
SYMATTR InstName U8
SYMATTR Value TLC2272
SYMBOL cap -288 -1264 R0
SYMATTR InstName C1
SYMATTR Value 0.1µ
SYMBOL cap -32 -1264 R0
SYMATTR InstName C2
SYMATTR Value 0.33µ
TEXT -2072 -904 Left 2 !.tran 0 {transtop} 0 {timestep}
TEXT -2072 -936 Left 2 !.include A3heartcfg.txt
TEXT -2288 -1384 Left 2 ;Don't change these -- used for auto-assessments.\nYou may modify input files while developing.\nFor submission: \n  * Use only 9V supply \n  * Connect "Vheartsensor" to your \n               conditioning circuit's input\n  * Connect "Vheartpulsesout" to your output signal.\n  * Only one label name per net.
TEXT -2272 -936 Left 2 ;Config file:
TEXT -2272 -904 Left 2 ;Analysis setup:
TEXT -2272 -792 Left 2 ;Battery
TEXT -2280 -1080 Left 2 ;Sensor-\nemulating \nstimulus
TEXT -1552 -1400 Left 2 ;=============================\nREPLACE WITH YOUR DETAILS\nE. Stewdent.,  00024601\nVheartsensor offset = 500 mV\nVheartsensor ampl = 20 mV\n=============================
TEXT -1552 -1160 Left 2 ;==========================================================================================\nHeart signal conditioning circuit (only copy and paste the given op-amps, or use those given in the working directory only)\n==========================================================================================
TEXT -384 -1400 Left 2 ;=============================\nVoltage regulation (complete this)\n=============================
TEXT -952 -1312 Left 2 !.incl TLC2272.LIB\n.incl TL081.LIB\n.incl LM78XX_RS.lib
TEXT -2272 -656 Left 2 ;Connect to your conditioning circuit's output
TEXT -960 -1400 Left 2 ;=============================\nIncludes (don't fiddle with this!!)\n=============================
TEXT -1584 -968 Left 2 ;=======================================\nYour circuit goes here, these are just placeholders.\n=======================================
LINE Normal -2304 -544 -2304 -1408 1
LINE Normal -1680 -1408 -1680 -544 1
LINE Normal -1680 -544 -2304 -544 1
LINE Normal -1680 -1408 -2304 -1408 1
